
---------- Begin Simulation Statistics ----------
simSeconds                                   0.250000                       # Number of seconds simulated (Second)
simTicks                                 250000000000                       # Number of ticks simulated (Tick)
finalTick                                10290153893500                       # Number of ticks from beginning of simulation (restored from checkpoints and never reset) (Tick)
simFreq                                  1000000000000                       # The number of ticks per simulated second ((Tick/Second))
hostSeconds                                   1379.66                       # Real time elapsed on the host (Second)
hostTickRate                                181204389                       # The number of ticks simulated per host second (ticks/s) ((Tick/Second))
hostMemory                                   17035468                       # Number of bytes of host memory used (Byte)
simInsts                                    192581768                       # Number of instructions simulated (Count)
simOps                                      192711546                       # Number of ops (including micro ops) simulated (Count)
hostInstRate                                   139587                       # Simulator instruction rate (inst/s) ((Count/Second))
hostOpRate                                     139681                       # Simulator op (including micro ops) rate (op/s) ((Count/Second))
board.bridge.power_state.pwrStateResidencyTicks::UNDEFINED 250000000000                       # Cumulative time (in ticks) in various power states (Tick)
board.cache_hierarchy.dptw_caches0.demandHits::processor.cores0.core.mmu.dtb.walker       709717                       # number of demand (read+write) hits (Count)
board.cache_hierarchy.dptw_caches0.demandHits::total       709717                       # number of demand (read+write) hits (Count)
board.cache_hierarchy.dptw_caches0.overallHits::processor.cores0.core.mmu.dtb.walker       709717                       # number of overall hits (Count)
board.cache_hierarchy.dptw_caches0.overallHits::total       709717                       # number of overall hits (Count)
board.cache_hierarchy.dptw_caches0.demandMisses::processor.cores0.core.mmu.dtb.walker        22713                       # number of demand (read+write) misses (Count)
board.cache_hierarchy.dptw_caches0.demandMisses::total        22713                       # number of demand (read+write) misses (Count)
board.cache_hierarchy.dptw_caches0.overallMisses::processor.cores0.core.mmu.dtb.walker        22713                       # number of overall misses (Count)
board.cache_hierarchy.dptw_caches0.overallMisses::total        22713                       # number of overall misses (Count)
board.cache_hierarchy.dptw_caches0.demandMissLatency::processor.cores0.core.mmu.dtb.walker    546890500                       # number of demand (read+write) miss ticks (Tick)
board.cache_hierarchy.dptw_caches0.demandMissLatency::total    546890500                       # number of demand (read+write) miss ticks (Tick)
board.cache_hierarchy.dptw_caches0.overallMissLatency::processor.cores0.core.mmu.dtb.walker    546890500                       # number of overall miss ticks (Tick)
board.cache_hierarchy.dptw_caches0.overallMissLatency::total    546890500                       # number of overall miss ticks (Tick)
board.cache_hierarchy.dptw_caches0.demandAccesses::processor.cores0.core.mmu.dtb.walker       732430                       # number of demand (read+write) accesses (Count)
board.cache_hierarchy.dptw_caches0.demandAccesses::total       732430                       # number of demand (read+write) accesses (Count)
board.cache_hierarchy.dptw_caches0.overallAccesses::processor.cores0.core.mmu.dtb.walker       732430                       # number of overall (read+write) accesses (Count)
board.cache_hierarchy.dptw_caches0.overallAccesses::total       732430                       # number of overall (read+write) accesses (Count)
board.cache_hierarchy.dptw_caches0.demandMissRate::processor.cores0.core.mmu.dtb.walker     0.031010                       # miss rate for demand accesses (Ratio)
board.cache_hierarchy.dptw_caches0.demandMissRate::total     0.031010                       # miss rate for demand accesses (Ratio)
board.cache_hierarchy.dptw_caches0.overallMissRate::processor.cores0.core.mmu.dtb.walker     0.031010                       # miss rate for overall accesses (Ratio)
board.cache_hierarchy.dptw_caches0.overallMissRate::total     0.031010                       # miss rate for overall accesses (Ratio)
board.cache_hierarchy.dptw_caches0.demandAvgMissLatency::processor.cores0.core.mmu.dtb.walker 24078.303174                       # average overall miss latency in ticks ((Tick/Count))
board.cache_hierarchy.dptw_caches0.demandAvgMissLatency::total 24078.303174                       # average overall miss latency in ticks ((Tick/Count))
board.cache_hierarchy.dptw_caches0.overallAvgMissLatency::processor.cores0.core.mmu.dtb.walker 24078.303174                       # average overall miss latency ((Tick/Count))
board.cache_hierarchy.dptw_caches0.overallAvgMissLatency::total 24078.303174                       # average overall miss latency ((Tick/Count))
board.cache_hierarchy.dptw_caches0.blockedCycles::no_mshrs            0                       # number of cycles access was blocked (Cycle)
board.cache_hierarchy.dptw_caches0.blockedCycles::no_targets            0                       # number of cycles access was blocked (Cycle)
board.cache_hierarchy.dptw_caches0.blockedCauses::no_mshrs            0                       # number of times access was blocked (Count)
board.cache_hierarchy.dptw_caches0.blockedCauses::no_targets            0                       # number of times access was blocked (Count)
board.cache_hierarchy.dptw_caches0.avgBlocked::no_mshrs          nan                       # average number of cycles each access was blocked ((Cycle/Count))
board.cache_hierarchy.dptw_caches0.avgBlocked::no_targets          nan                       # average number of cycles each access was blocked ((Cycle/Count))
board.cache_hierarchy.dptw_caches0.writebacks::writebacks            3                       # number of writebacks (Count)
board.cache_hierarchy.dptw_caches0.writebacks::total            3                       # number of writebacks (Count)
board.cache_hierarchy.dptw_caches0.demandMshrMisses::processor.cores0.core.mmu.dtb.walker        22713                       # number of demand (read+write) MSHR misses (Count)
board.cache_hierarchy.dptw_caches0.demandMshrMisses::total        22713                       # number of demand (read+write) MSHR misses (Count)
board.cache_hierarchy.dptw_caches0.overallMshrMisses::processor.cores0.core.mmu.dtb.walker        22713                       # number of overall MSHR misses (Count)
board.cache_hierarchy.dptw_caches0.overallMshrMisses::total        22713                       # number of overall MSHR misses (Count)
board.cache_hierarchy.dptw_caches0.demandMshrMissLatency::processor.cores0.core.mmu.dtb.walker    535534000                       # number of demand (read+write) MSHR miss ticks (Tick)
board.cache_hierarchy.dptw_caches0.demandMshrMissLatency::total    535534000                       # number of demand (read+write) MSHR miss ticks (Tick)
board.cache_hierarchy.dptw_caches0.overallMshrMissLatency::processor.cores0.core.mmu.dtb.walker    535534000                       # number of overall MSHR miss ticks (Tick)
board.cache_hierarchy.dptw_caches0.overallMshrMissLatency::total    535534000                       # number of overall MSHR miss ticks (Tick)
board.cache_hierarchy.dptw_caches0.demandMshrMissRate::processor.cores0.core.mmu.dtb.walker     0.031010                       # mshr miss ratio for demand accesses (Ratio)
board.cache_hierarchy.dptw_caches0.demandMshrMissRate::total     0.031010                       # mshr miss ratio for demand accesses (Ratio)
board.cache_hierarchy.dptw_caches0.overallMshrMissRate::processor.cores0.core.mmu.dtb.walker     0.031010                       # mshr miss ratio for overall accesses (Ratio)
board.cache_hierarchy.dptw_caches0.overallMshrMissRate::total     0.031010                       # mshr miss ratio for overall accesses (Ratio)
board.cache_hierarchy.dptw_caches0.demandAvgMshrMissLatency::processor.cores0.core.mmu.dtb.walker 23578.303174                       # average overall mshr miss latency ((Tick/Count))
board.cache_hierarchy.dptw_caches0.demandAvgMshrMissLatency::total 23578.303174                       # average overall mshr miss latency ((Tick/Count))
board.cache_hierarchy.dptw_caches0.overallAvgMshrMissLatency::processor.cores0.core.mmu.dtb.walker 23578.303174                       # average overall mshr miss latency ((Tick/Count))
board.cache_hierarchy.dptw_caches0.overallAvgMshrMissLatency::total 23578.303174                       # average overall mshr miss latency ((Tick/Count))
board.cache_hierarchy.dptw_caches0.replacements         2889                       # number of replacements (Count)
board.cache_hierarchy.dptw_caches0.ReadReq.hits::processor.cores0.core.mmu.dtb.walker       709717                       # number of ReadReq hits (Count)
board.cache_hierarchy.dptw_caches0.ReadReq.hits::total       709717                       # number of ReadReq hits (Count)
board.cache_hierarchy.dptw_caches0.ReadReq.misses::processor.cores0.core.mmu.dtb.walker        22713                       # number of ReadReq misses (Count)
board.cache_hierarchy.dptw_caches0.ReadReq.misses::total        22713                       # number of ReadReq misses (Count)
board.cache_hierarchy.dptw_caches0.ReadReq.missLatency::processor.cores0.core.mmu.dtb.walker    546890500                       # number of ReadReq miss ticks (Tick)
board.cache_hierarchy.dptw_caches0.ReadReq.missLatency::total    546890500                       # number of ReadReq miss ticks (Tick)
board.cache_hierarchy.dptw_caches0.ReadReq.accesses::processor.cores0.core.mmu.dtb.walker       732430                       # number of ReadReq accesses(hits+misses) (Count)
board.cache_hierarchy.dptw_caches0.ReadReq.accesses::total       732430                       # number of ReadReq accesses(hits+misses) (Count)
board.cache_hierarchy.dptw_caches0.ReadReq.missRate::processor.cores0.core.mmu.dtb.walker     0.031010                       # miss rate for ReadReq accesses (Ratio)
board.cache_hierarchy.dptw_caches0.ReadReq.missRate::total     0.031010                       # miss rate for ReadReq accesses (Ratio)
board.cache_hierarchy.dptw_caches0.ReadReq.avgMissLatency::processor.cores0.core.mmu.dtb.walker 24078.303174                       # average ReadReq miss latency ((Tick/Count))
board.cache_hierarchy.dptw_caches0.ReadReq.avgMissLatency::total 24078.303174                       # average ReadReq miss latency ((Tick/Count))
board.cache_hierarchy.dptw_caches0.ReadReq.mshrMisses::processor.cores0.core.mmu.dtb.walker        22713                       # number of ReadReq MSHR misses (Count)
board.cache_hierarchy.dptw_caches0.ReadReq.mshrMisses::total        22713                       # number of ReadReq MSHR misses (Count)
board.cache_hierarchy.dptw_caches0.ReadReq.mshrMissLatency::processor.cores0.core.mmu.dtb.walker    535534000                       # number of ReadReq MSHR miss ticks (Tick)
board.cache_hierarchy.dptw_caches0.ReadReq.mshrMissLatency::total    535534000                       # number of ReadReq MSHR miss ticks (Tick)
board.cache_hierarchy.dptw_caches0.ReadReq.mshrMissRate::processor.cores0.core.mmu.dtb.walker     0.031010                       # mshr miss rate for ReadReq accesses (Ratio)
board.cache_hierarchy.dptw_caches0.ReadReq.mshrMissRate::total     0.031010                       # mshr miss rate for ReadReq accesses (Ratio)
board.cache_hierarchy.dptw_caches0.ReadReq.avgMshrMissLatency::processor.cores0.core.mmu.dtb.walker 23578.303174                       # average ReadReq mshr miss latency ((Tick/Count))
board.cache_hierarchy.dptw_caches0.ReadReq.avgMshrMissLatency::total 23578.303174                       # average ReadReq mshr miss latency ((Tick/Count))
board.cache_hierarchy.dptw_caches0.power_state.pwrStateResidencyTicks::UNDEFINED 250000000000                       # Cumulative time (in ticks) in various power states (Tick)
board.cache_hierarchy.dptw_caches0.tags.tagsInUse   125.297385                       # Average ticks per tags in use ((Tick/Count))
board.cache_hierarchy.dptw_caches0.tags.totalRefs       621126                       # Total number of references to valid blocks. (Count)
board.cache_hierarchy.dptw_caches0.tags.sampledRefs        22585                       # Sample count of references to valid blocks. (Count)
board.cache_hierarchy.dptw_caches0.tags.avgRefs    27.501705                       # Average number of references to valid blocks. ((Count/Count))
board.cache_hierarchy.dptw_caches0.tags.warmupTick 10040206018500                       # The tick when the warmup percentage was hit. (Tick)
board.cache_hierarchy.dptw_caches0.tags.occupancies::processor.cores0.core.mmu.dtb.walker   125.297385                       # Average occupied blocks per tick, per requestor ((Count/Tick))
board.cache_hierarchy.dptw_caches0.tags.avgOccs::processor.cores0.core.mmu.dtb.walker     0.978886                       # Average percentage of cache occupancy ((Ratio/Tick))
board.cache_hierarchy.dptw_caches0.tags.avgOccs::total     0.978886                       # Average percentage of cache occupancy ((Ratio/Tick))
board.cache_hierarchy.dptw_caches0.tags.occupanciesTaskId::1024          128                       # Occupied blocks per task id (Count)
board.cache_hierarchy.dptw_caches0.tags.ageTaskId_1024::0            1                       # Occupied blocks per task id, per block age (Count)
board.cache_hierarchy.dptw_caches0.tags.ageTaskId_1024::1            2                       # Occupied blocks per task id, per block age (Count)
board.cache_hierarchy.dptw_caches0.tags.ageTaskId_1024::2           12                       # Occupied blocks per task id, per block age (Count)
board.cache_hierarchy.dptw_caches0.tags.ageTaskId_1024::3           96                       # Occupied blocks per task id, per block age (Count)
board.cache_hierarchy.dptw_caches0.tags.ageTaskId_1024::4           17                       # Occupied blocks per task id, per block age (Count)
board.cache_hierarchy.dptw_caches0.tags.ratioOccsTaskId::1024            1                       # Ratio of occupied blocks and all blocks, per task id (Ratio)
board.cache_hierarchy.dptw_caches0.tags.tagAccesses      2952433                       # Number of tag accesses (Count)
board.cache_hierarchy.dptw_caches0.tags.dataAccesses      2952433                       # Number of data accesses (Count)
board.cache_hierarchy.dptw_caches0.tags.power_state.pwrStateResidencyTicks::UNDEFINED 250000000000                       # Cumulative time (in ticks) in various power states (Tick)
board.cache_hierarchy.dptw_caches1.demandHits::processor.cores1.core.mmu.dtb.walker       497193                       # number of demand (read+write) hits (Count)
board.cache_hierarchy.dptw_caches1.demandHits::total       497193                       # number of demand (read+write) hits (Count)
board.cache_hierarchy.dptw_caches1.overallHits::processor.cores1.core.mmu.dtb.walker       497193                       # number of overall hits (Count)
board.cache_hierarchy.dptw_caches1.overallHits::total       497193                       # number of overall hits (Count)
board.cache_hierarchy.dptw_caches1.demandMisses::processor.cores1.core.mmu.dtb.walker        14974                       # number of demand (read+write) misses (Count)
board.cache_hierarchy.dptw_caches1.demandMisses::total        14974                       # number of demand (read+write) misses (Count)
board.cache_hierarchy.dptw_caches1.overallMisses::processor.cores1.core.mmu.dtb.walker        14974                       # number of overall misses (Count)
board.cache_hierarchy.dptw_caches1.overallMisses::total        14974                       # number of overall misses (Count)
board.cache_hierarchy.dptw_caches1.demandMissLatency::processor.cores1.core.mmu.dtb.walker    889104000                       # number of demand (read+write) miss ticks (Tick)
board.cache_hierarchy.dptw_caches1.demandMissLatency::total    889104000                       # number of demand (read+write) miss ticks (Tick)
board.cache_hierarchy.dptw_caches1.overallMissLatency::processor.cores1.core.mmu.dtb.walker    889104000                       # number of overall miss ticks (Tick)
board.cache_hierarchy.dptw_caches1.overallMissLatency::total    889104000                       # number of overall miss ticks (Tick)
board.cache_hierarchy.dptw_caches1.demandAccesses::processor.cores1.core.mmu.dtb.walker       512167                       # number of demand (read+write) accesses (Count)
board.cache_hierarchy.dptw_caches1.demandAccesses::total       512167                       # number of demand (read+write) accesses (Count)
board.cache_hierarchy.dptw_caches1.overallAccesses::processor.cores1.core.mmu.dtb.walker       512167                       # number of overall (read+write) accesses (Count)
board.cache_hierarchy.dptw_caches1.overallAccesses::total       512167                       # number of overall (read+write) accesses (Count)
board.cache_hierarchy.dptw_caches1.demandMissRate::processor.cores1.core.mmu.dtb.walker     0.029237                       # miss rate for demand accesses (Ratio)
board.cache_hierarchy.dptw_caches1.demandMissRate::total     0.029237                       # miss rate for demand accesses (Ratio)
board.cache_hierarchy.dptw_caches1.overallMissRate::processor.cores1.core.mmu.dtb.walker     0.029237                       # miss rate for overall accesses (Ratio)
board.cache_hierarchy.dptw_caches1.overallMissRate::total     0.029237                       # miss rate for overall accesses (Ratio)
board.cache_hierarchy.dptw_caches1.demandAvgMissLatency::processor.cores1.core.mmu.dtb.walker 59376.519300                       # average overall miss latency in ticks ((Tick/Count))
board.cache_hierarchy.dptw_caches1.demandAvgMissLatency::total 59376.519300                       # average overall miss latency in ticks ((Tick/Count))
board.cache_hierarchy.dptw_caches1.overallAvgMissLatency::processor.cores1.core.mmu.dtb.walker 59376.519300                       # average overall miss latency ((Tick/Count))
board.cache_hierarchy.dptw_caches1.overallAvgMissLatency::total 59376.519300                       # average overall miss latency ((Tick/Count))
board.cache_hierarchy.dptw_caches1.blockedCycles::no_mshrs            0                       # number of cycles access was blocked (Cycle)
board.cache_hierarchy.dptw_caches1.blockedCycles::no_targets            0                       # number of cycles access was blocked (Cycle)
board.cache_hierarchy.dptw_caches1.blockedCauses::no_mshrs            0                       # number of times access was blocked (Count)
board.cache_hierarchy.dptw_caches1.blockedCauses::no_targets            0                       # number of times access was blocked (Count)
board.cache_hierarchy.dptw_caches1.avgBlocked::no_mshrs          nan                       # average number of cycles each access was blocked ((Cycle/Count))
board.cache_hierarchy.dptw_caches1.avgBlocked::no_targets          nan                       # average number of cycles each access was blocked ((Cycle/Count))
board.cache_hierarchy.dptw_caches1.writebacks::writebacks            6                       # number of writebacks (Count)
board.cache_hierarchy.dptw_caches1.writebacks::total            6                       # number of writebacks (Count)
board.cache_hierarchy.dptw_caches1.demandMshrMisses::processor.cores1.core.mmu.dtb.walker        14974                       # number of demand (read+write) MSHR misses (Count)
board.cache_hierarchy.dptw_caches1.demandMshrMisses::total        14974                       # number of demand (read+write) MSHR misses (Count)
board.cache_hierarchy.dptw_caches1.overallMshrMisses::processor.cores1.core.mmu.dtb.walker        14974                       # number of overall MSHR misses (Count)
board.cache_hierarchy.dptw_caches1.overallMshrMisses::total        14974                       # number of overall MSHR misses (Count)
board.cache_hierarchy.dptw_caches1.demandMshrMissLatency::processor.cores1.core.mmu.dtb.walker    881617000                       # number of demand (read+write) MSHR miss ticks (Tick)
board.cache_hierarchy.dptw_caches1.demandMshrMissLatency::total    881617000                       # number of demand (read+write) MSHR miss ticks (Tick)
board.cache_hierarchy.dptw_caches1.overallMshrMissLatency::processor.cores1.core.mmu.dtb.walker    881617000                       # number of overall MSHR miss ticks (Tick)
board.cache_hierarchy.dptw_caches1.overallMshrMissLatency::total    881617000                       # number of overall MSHR miss ticks (Tick)
board.cache_hierarchy.dptw_caches1.demandMshrMissRate::processor.cores1.core.mmu.dtb.walker     0.029237                       # mshr miss ratio for demand accesses (Ratio)
board.cache_hierarchy.dptw_caches1.demandMshrMissRate::total     0.029237                       # mshr miss ratio for demand accesses (Ratio)
board.cache_hierarchy.dptw_caches1.overallMshrMissRate::processor.cores1.core.mmu.dtb.walker     0.029237                       # mshr miss ratio for overall accesses (Ratio)
board.cache_hierarchy.dptw_caches1.overallMshrMissRate::total     0.029237                       # mshr miss ratio for overall accesses (Ratio)
board.cache_hierarchy.dptw_caches1.demandAvgMshrMissLatency::processor.cores1.core.mmu.dtb.walker 58876.519300                       # average overall mshr miss latency ((Tick/Count))
board.cache_hierarchy.dptw_caches1.demandAvgMshrMissLatency::total 58876.519300                       # average overall mshr miss latency ((Tick/Count))
board.cache_hierarchy.dptw_caches1.overallAvgMshrMissLatency::processor.cores1.core.mmu.dtb.walker 58876.519300                       # average overall mshr miss latency ((Tick/Count))
board.cache_hierarchy.dptw_caches1.overallAvgMshrMissLatency::total 58876.519300                       # average overall mshr miss latency ((Tick/Count))
board.cache_hierarchy.dptw_caches1.replacements         2494                       # number of replacements (Count)
board.cache_hierarchy.dptw_caches1.ReadReq.hits::processor.cores1.core.mmu.dtb.walker       497193                       # number of ReadReq hits (Count)
board.cache_hierarchy.dptw_caches1.ReadReq.hits::total       497193                       # number of ReadReq hits (Count)
board.cache_hierarchy.dptw_caches1.ReadReq.misses::processor.cores1.core.mmu.dtb.walker        14974                       # number of ReadReq misses (Count)
board.cache_hierarchy.dptw_caches1.ReadReq.misses::total        14974                       # number of ReadReq misses (Count)
board.cache_hierarchy.dptw_caches1.ReadReq.missLatency::processor.cores1.core.mmu.dtb.walker    889104000                       # number of ReadReq miss ticks (Tick)
board.cache_hierarchy.dptw_caches1.ReadReq.missLatency::total    889104000                       # number of ReadReq miss ticks (Tick)
board.cache_hierarchy.dptw_caches1.ReadReq.accesses::processor.cores1.core.mmu.dtb.walker       512167                       # number of ReadReq accesses(hits+misses) (Count)
board.cache_hierarchy.dptw_caches1.ReadReq.accesses::total       512167                       # number of ReadReq accesses(hits+misses) (Count)
board.cache_hierarchy.dptw_caches1.ReadReq.missRate::processor.cores1.core.mmu.dtb.walker     0.029237                       # miss rate for ReadReq accesses (Ratio)
board.cache_hierarchy.dptw_caches1.ReadReq.missRate::total     0.029237                       # miss rate for ReadReq accesses (Ratio)
board.cache_hierarchy.dptw_caches1.ReadReq.avgMissLatency::processor.cores1.core.mmu.dtb.walker 59376.519300                       # average ReadReq miss latency ((Tick/Count))
board.cache_hierarchy.dptw_caches1.ReadReq.avgMissLatency::total 59376.519300                       # average ReadReq miss latency ((Tick/Count))
board.cache_hierarchy.dptw_caches1.ReadReq.mshrMisses::processor.cores1.core.mmu.dtb.walker        14974                       # number of ReadReq MSHR misses (Count)
board.cache_hierarchy.dptw_caches1.ReadReq.mshrMisses::total        14974                       # number of ReadReq MSHR misses (Count)
board.cache_hierarchy.dptw_caches1.ReadReq.mshrMissLatency::processor.cores1.core.mmu.dtb.walker    881617000                       # number of ReadReq MSHR miss ticks (Tick)
board.cache_hierarchy.dptw_caches1.ReadReq.mshrMissLatency::total    881617000                       # number of ReadReq MSHR miss ticks (Tick)
board.cache_hierarchy.dptw_caches1.ReadReq.mshrMissRate::processor.cores1.core.mmu.dtb.walker     0.029237                       # mshr miss rate for ReadReq accesses (Ratio)
board.cache_hierarchy.dptw_caches1.ReadReq.mshrMissRate::total     0.029237                       # mshr miss rate for ReadReq accesses (Ratio)
board.cache_hierarchy.dptw_caches1.ReadReq.avgMshrMissLatency::processor.cores1.core.mmu.dtb.walker 58876.519300                       # average ReadReq mshr miss latency ((Tick/Count))
board.cache_hierarchy.dptw_caches1.ReadReq.avgMshrMissLatency::total 58876.519300                       # average ReadReq mshr miss latency ((Tick/Count))
board.cache_hierarchy.dptw_caches1.power_state.pwrStateResidencyTicks::UNDEFINED 250000000000                       # Cumulative time (in ticks) in various power states (Tick)
board.cache_hierarchy.dptw_caches1.tags.tagsInUse   126.264582                       # Average ticks per tags in use ((Tick/Count))
board.cache_hierarchy.dptw_caches1.tags.totalRefs       502544                       # Total number of references to valid blocks. (Count)
board.cache_hierarchy.dptw_caches1.tags.sampledRefs        14846                       # Sample count of references to valid blocks. (Count)
board.cache_hierarchy.dptw_caches1.tags.avgRefs    33.850465                       # Average number of references to valid blocks. ((Count/Count))
board.cache_hierarchy.dptw_caches1.tags.warmupTick 10040252648500                       # The tick when the warmup percentage was hit. (Tick)
board.cache_hierarchy.dptw_caches1.tags.occupancies::processor.cores1.core.mmu.dtb.walker   126.264582                       # Average occupied blocks per tick, per requestor ((Count/Tick))
board.cache_hierarchy.dptw_caches1.tags.avgOccs::processor.cores1.core.mmu.dtb.walker     0.986442                       # Average percentage of cache occupancy ((Ratio/Tick))
board.cache_hierarchy.dptw_caches1.tags.avgOccs::total     0.986442                       # Average percentage of cache occupancy ((Ratio/Tick))
board.cache_hierarchy.dptw_caches1.tags.occupanciesTaskId::1024          128                       # Occupied blocks per task id (Count)
board.cache_hierarchy.dptw_caches1.tags.ageTaskId_1024::2            5                       # Occupied blocks per task id, per block age (Count)
board.cache_hierarchy.dptw_caches1.tags.ageTaskId_1024::3           80                       # Occupied blocks per task id, per block age (Count)
board.cache_hierarchy.dptw_caches1.tags.ageTaskId_1024::4           43                       # Occupied blocks per task id, per block age (Count)
board.cache_hierarchy.dptw_caches1.tags.ratioOccsTaskId::1024            1                       # Ratio of occupied blocks and all blocks, per task id (Ratio)
board.cache_hierarchy.dptw_caches1.tags.tagAccesses      2063642                       # Number of tag accesses (Count)
board.cache_hierarchy.dptw_caches1.tags.dataAccesses      2063642                       # Number of data accesses (Count)
board.cache_hierarchy.dptw_caches1.tags.power_state.pwrStateResidencyTicks::UNDEFINED 250000000000                       # Cumulative time (in ticks) in various power states (Tick)
board.cache_hierarchy.iocache.blockedCycles::no_mshrs            0                       # number of cycles access was blocked (Cycle)
board.cache_hierarchy.iocache.blockedCycles::no_targets            0                       # number of cycles access was blocked (Cycle)
board.cache_hierarchy.iocache.blockedCauses::no_mshrs            0                       # number of times access was blocked (Count)
board.cache_hierarchy.iocache.blockedCauses::no_targets            0                       # number of times access was blocked (Count)
board.cache_hierarchy.iocache.avgBlocked::no_mshrs          nan                       # average number of cycles each access was blocked ((Cycle/Count))
board.cache_hierarchy.iocache.avgBlocked::no_targets          nan                       # average number of cycles each access was blocked ((Cycle/Count))
board.cache_hierarchy.iocache.replacements            0                       # number of replacements (Count)
board.cache_hierarchy.iocache.power_state.pwrStateResidencyTicks::UNDEFINED 250000000000                       # Cumulative time (in ticks) in various power states (Tick)
board.cache_hierarchy.iocache.tags.tagsInUse            0                       # Average ticks per tags in use ((Tick/Count))
board.cache_hierarchy.iocache.tags.totalRefs            0                       # Total number of references to valid blocks. (Count)
board.cache_hierarchy.iocache.tags.sampledRefs            0                       # Sample count of references to valid blocks. (Count)
board.cache_hierarchy.iocache.tags.avgRefs          nan                       # Average number of references to valid blocks. ((Count/Count))
board.cache_hierarchy.iocache.tags.warmupTick            0                       # The tick when the warmup percentage was hit. (Tick)
board.cache_hierarchy.iocache.tags.tagAccesses            0                       # Number of tag accesses (Count)
board.cache_hierarchy.iocache.tags.dataAccesses            0                       # Number of data accesses (Count)
board.cache_hierarchy.iocache.tags.power_state.pwrStateResidencyTicks::UNDEFINED 250000000000                       # Cumulative time (in ticks) in various power states (Tick)
board.cache_hierarchy.iptw_caches0.demandHits::processor.cores0.core.mmu.itb.walker          684                       # number of demand (read+write) hits (Count)
board.cache_hierarchy.iptw_caches0.demandHits::total          684                       # number of demand (read+write) hits (Count)
board.cache_hierarchy.iptw_caches0.overallHits::processor.cores0.core.mmu.itb.walker          684                       # number of overall hits (Count)
board.cache_hierarchy.iptw_caches0.overallHits::total          684                       # number of overall hits (Count)
board.cache_hierarchy.iptw_caches0.demandMisses::processor.cores0.core.mmu.itb.walker           31                       # number of demand (read+write) misses (Count)
board.cache_hierarchy.iptw_caches0.demandMisses::total           31                       # number of demand (read+write) misses (Count)
board.cache_hierarchy.iptw_caches0.overallMisses::processor.cores0.core.mmu.itb.walker           31                       # number of overall misses (Count)
board.cache_hierarchy.iptw_caches0.overallMisses::total           31                       # number of overall misses (Count)
board.cache_hierarchy.iptw_caches0.demandMissLatency::processor.cores0.core.mmu.itb.walker      8770000                       # number of demand (read+write) miss ticks (Tick)
board.cache_hierarchy.iptw_caches0.demandMissLatency::total      8770000                       # number of demand (read+write) miss ticks (Tick)
board.cache_hierarchy.iptw_caches0.overallMissLatency::processor.cores0.core.mmu.itb.walker      8770000                       # number of overall miss ticks (Tick)
board.cache_hierarchy.iptw_caches0.overallMissLatency::total      8770000                       # number of overall miss ticks (Tick)
board.cache_hierarchy.iptw_caches0.demandAccesses::processor.cores0.core.mmu.itb.walker          715                       # number of demand (read+write) accesses (Count)
board.cache_hierarchy.iptw_caches0.demandAccesses::total          715                       # number of demand (read+write) accesses (Count)
board.cache_hierarchy.iptw_caches0.overallAccesses::processor.cores0.core.mmu.itb.walker          715                       # number of overall (read+write) accesses (Count)
board.cache_hierarchy.iptw_caches0.overallAccesses::total          715                       # number of overall (read+write) accesses (Count)
board.cache_hierarchy.iptw_caches0.demandMissRate::processor.cores0.core.mmu.itb.walker     0.043357                       # miss rate for demand accesses (Ratio)
board.cache_hierarchy.iptw_caches0.demandMissRate::total     0.043357                       # miss rate for demand accesses (Ratio)
board.cache_hierarchy.iptw_caches0.overallMissRate::processor.cores0.core.mmu.itb.walker     0.043357                       # miss rate for overall accesses (Ratio)
board.cache_hierarchy.iptw_caches0.overallMissRate::total     0.043357                       # miss rate for overall accesses (Ratio)
board.cache_hierarchy.iptw_caches0.demandAvgMissLatency::processor.cores0.core.mmu.itb.walker 282903.225806                       # average overall miss latency in ticks ((Tick/Count))
board.cache_hierarchy.iptw_caches0.demandAvgMissLatency::total 282903.225806                       # average overall miss latency in ticks ((Tick/Count))
board.cache_hierarchy.iptw_caches0.overallAvgMissLatency::processor.cores0.core.mmu.itb.walker 282903.225806                       # average overall miss latency ((Tick/Count))
board.cache_hierarchy.iptw_caches0.overallAvgMissLatency::total 282903.225806                       # average overall miss latency ((Tick/Count))
board.cache_hierarchy.iptw_caches0.blockedCycles::no_mshrs            0                       # number of cycles access was blocked (Cycle)
board.cache_hierarchy.iptw_caches0.blockedCycles::no_targets            0                       # number of cycles access was blocked (Cycle)
board.cache_hierarchy.iptw_caches0.blockedCauses::no_mshrs            0                       # number of times access was blocked (Count)
board.cache_hierarchy.iptw_caches0.blockedCauses::no_targets            0                       # number of times access was blocked (Count)
board.cache_hierarchy.iptw_caches0.avgBlocked::no_mshrs          nan                       # average number of cycles each access was blocked ((Cycle/Count))
board.cache_hierarchy.iptw_caches0.avgBlocked::no_targets          nan                       # average number of cycles each access was blocked ((Cycle/Count))
board.cache_hierarchy.iptw_caches0.demandMshrMisses::processor.cores0.core.mmu.itb.walker           31                       # number of demand (read+write) MSHR misses (Count)
board.cache_hierarchy.iptw_caches0.demandMshrMisses::total           31                       # number of demand (read+write) MSHR misses (Count)
board.cache_hierarchy.iptw_caches0.overallMshrMisses::processor.cores0.core.mmu.itb.walker           31                       # number of overall MSHR misses (Count)
board.cache_hierarchy.iptw_caches0.overallMshrMisses::total           31                       # number of overall MSHR misses (Count)
board.cache_hierarchy.iptw_caches0.demandMshrMissLatency::processor.cores0.core.mmu.itb.walker      8754500                       # number of demand (read+write) MSHR miss ticks (Tick)
board.cache_hierarchy.iptw_caches0.demandMshrMissLatency::total      8754500                       # number of demand (read+write) MSHR miss ticks (Tick)
board.cache_hierarchy.iptw_caches0.overallMshrMissLatency::processor.cores0.core.mmu.itb.walker      8754500                       # number of overall MSHR miss ticks (Tick)
board.cache_hierarchy.iptw_caches0.overallMshrMissLatency::total      8754500                       # number of overall MSHR miss ticks (Tick)
board.cache_hierarchy.iptw_caches0.demandMshrMissRate::processor.cores0.core.mmu.itb.walker     0.043357                       # mshr miss ratio for demand accesses (Ratio)
board.cache_hierarchy.iptw_caches0.demandMshrMissRate::total     0.043357                       # mshr miss ratio for demand accesses (Ratio)
board.cache_hierarchy.iptw_caches0.overallMshrMissRate::processor.cores0.core.mmu.itb.walker     0.043357                       # mshr miss ratio for overall accesses (Ratio)
board.cache_hierarchy.iptw_caches0.overallMshrMissRate::total     0.043357                       # mshr miss ratio for overall accesses (Ratio)
board.cache_hierarchy.iptw_caches0.demandAvgMshrMissLatency::processor.cores0.core.mmu.itb.walker 282403.225806                       # average overall mshr miss latency ((Tick/Count))
board.cache_hierarchy.iptw_caches0.demandAvgMshrMissLatency::total 282403.225806                       # average overall mshr miss latency ((Tick/Count))
board.cache_hierarchy.iptw_caches0.overallAvgMshrMissLatency::processor.cores0.core.mmu.itb.walker 282403.225806                       # average overall mshr miss latency ((Tick/Count))
board.cache_hierarchy.iptw_caches0.overallAvgMshrMissLatency::total 282403.225806                       # average overall mshr miss latency ((Tick/Count))
board.cache_hierarchy.iptw_caches0.replacements            5                       # number of replacements (Count)
board.cache_hierarchy.iptw_caches0.ReadReq.hits::processor.cores0.core.mmu.itb.walker          684                       # number of ReadReq hits (Count)
board.cache_hierarchy.iptw_caches0.ReadReq.hits::total          684                       # number of ReadReq hits (Count)
board.cache_hierarchy.iptw_caches0.ReadReq.misses::processor.cores0.core.mmu.itb.walker           31                       # number of ReadReq misses (Count)
board.cache_hierarchy.iptw_caches0.ReadReq.misses::total           31                       # number of ReadReq misses (Count)
board.cache_hierarchy.iptw_caches0.ReadReq.missLatency::processor.cores0.core.mmu.itb.walker      8770000                       # number of ReadReq miss ticks (Tick)
board.cache_hierarchy.iptw_caches0.ReadReq.missLatency::total      8770000                       # number of ReadReq miss ticks (Tick)
board.cache_hierarchy.iptw_caches0.ReadReq.accesses::processor.cores0.core.mmu.itb.walker          715                       # number of ReadReq accesses(hits+misses) (Count)
board.cache_hierarchy.iptw_caches0.ReadReq.accesses::total          715                       # number of ReadReq accesses(hits+misses) (Count)
board.cache_hierarchy.iptw_caches0.ReadReq.missRate::processor.cores0.core.mmu.itb.walker     0.043357                       # miss rate for ReadReq accesses (Ratio)
board.cache_hierarchy.iptw_caches0.ReadReq.missRate::total     0.043357                       # miss rate for ReadReq accesses (Ratio)
board.cache_hierarchy.iptw_caches0.ReadReq.avgMissLatency::processor.cores0.core.mmu.itb.walker 282903.225806                       # average ReadReq miss latency ((Tick/Count))
board.cache_hierarchy.iptw_caches0.ReadReq.avgMissLatency::total 282903.225806                       # average ReadReq miss latency ((Tick/Count))
board.cache_hierarchy.iptw_caches0.ReadReq.mshrMisses::processor.cores0.core.mmu.itb.walker           31                       # number of ReadReq MSHR misses (Count)
board.cache_hierarchy.iptw_caches0.ReadReq.mshrMisses::total           31                       # number of ReadReq MSHR misses (Count)
board.cache_hierarchy.iptw_caches0.ReadReq.mshrMissLatency::processor.cores0.core.mmu.itb.walker      8754500                       # number of ReadReq MSHR miss ticks (Tick)
board.cache_hierarchy.iptw_caches0.ReadReq.mshrMissLatency::total      8754500                       # number of ReadReq MSHR miss ticks (Tick)
board.cache_hierarchy.iptw_caches0.ReadReq.mshrMissRate::processor.cores0.core.mmu.itb.walker     0.043357                       # mshr miss rate for ReadReq accesses (Ratio)
board.cache_hierarchy.iptw_caches0.ReadReq.mshrMissRate::total     0.043357                       # mshr miss rate for ReadReq accesses (Ratio)
board.cache_hierarchy.iptw_caches0.ReadReq.avgMshrMissLatency::processor.cores0.core.mmu.itb.walker 282403.225806                       # average ReadReq mshr miss latency ((Tick/Count))
board.cache_hierarchy.iptw_caches0.ReadReq.avgMshrMissLatency::total 282403.225806                       # average ReadReq mshr miss latency ((Tick/Count))
board.cache_hierarchy.iptw_caches0.power_state.pwrStateResidencyTicks::UNDEFINED 250000000000                       # Cumulative time (in ticks) in various power states (Tick)
board.cache_hierarchy.iptw_caches0.tags.tagsInUse    12.491964                       # Average ticks per tags in use ((Tick/Count))
board.cache_hierarchy.iptw_caches0.tags.totalRefs          127                       # Total number of references to valid blocks. (Count)
board.cache_hierarchy.iptw_caches0.tags.sampledRefs           12                       # Sample count of references to valid blocks. (Count)
board.cache_hierarchy.iptw_caches0.tags.avgRefs    10.583333                       # Average number of references to valid blocks. ((Count/Count))
board.cache_hierarchy.iptw_caches0.tags.warmupTick 10040687429500                       # The tick when the warmup percentage was hit. (Tick)
board.cache_hierarchy.iptw_caches0.tags.occupancies::processor.cores0.core.mmu.itb.walker    12.491964                       # Average occupied blocks per tick, per requestor ((Count/Tick))
board.cache_hierarchy.iptw_caches0.tags.avgOccs::processor.cores0.core.mmu.itb.walker     0.097593                       # Average percentage of cache occupancy ((Ratio/Tick))
board.cache_hierarchy.iptw_caches0.tags.avgOccs::total     0.097593                       # Average percentage of cache occupancy ((Ratio/Tick))
board.cache_hierarchy.iptw_caches0.tags.occupanciesTaskId::1024           19                       # Occupied blocks per task id (Count)
board.cache_hierarchy.iptw_caches0.tags.ageTaskId_1024::3            2                       # Occupied blocks per task id, per block age (Count)
board.cache_hierarchy.iptw_caches0.tags.ageTaskId_1024::4           17                       # Occupied blocks per task id, per block age (Count)
board.cache_hierarchy.iptw_caches0.tags.ratioOccsTaskId::1024     0.148438                       # Ratio of occupied blocks and all blocks, per task id (Ratio)
board.cache_hierarchy.iptw_caches0.tags.tagAccesses         2891                       # Number of tag accesses (Count)
board.cache_hierarchy.iptw_caches0.tags.dataAccesses         2891                       # Number of data accesses (Count)
board.cache_hierarchy.iptw_caches0.tags.power_state.pwrStateResidencyTicks::UNDEFINED 250000000000                       # Cumulative time (in ticks) in various power states (Tick)
board.cache_hierarchy.iptw_caches1.demandHits::processor.cores1.core.mmu.itb.walker          826                       # number of demand (read+write) hits (Count)
board.cache_hierarchy.iptw_caches1.demandHits::total          826                       # number of demand (read+write) hits (Count)
board.cache_hierarchy.iptw_caches1.overallHits::processor.cores1.core.mmu.itb.walker          826                       # number of overall hits (Count)
board.cache_hierarchy.iptw_caches1.overallHits::total          826                       # number of overall hits (Count)
board.cache_hierarchy.iptw_caches1.demandMisses::processor.cores1.core.mmu.itb.walker           34                       # number of demand (read+write) misses (Count)
board.cache_hierarchy.iptw_caches1.demandMisses::total           34                       # number of demand (read+write) misses (Count)
board.cache_hierarchy.iptw_caches1.overallMisses::processor.cores1.core.mmu.itb.walker           34                       # number of overall misses (Count)
board.cache_hierarchy.iptw_caches1.overallMisses::total           34                       # number of overall misses (Count)
board.cache_hierarchy.iptw_caches1.demandMissLatency::processor.cores1.core.mmu.itb.walker     10987000                       # number of demand (read+write) miss ticks (Tick)
board.cache_hierarchy.iptw_caches1.demandMissLatency::total     10987000                       # number of demand (read+write) miss ticks (Tick)
board.cache_hierarchy.iptw_caches1.overallMissLatency::processor.cores1.core.mmu.itb.walker     10987000                       # number of overall miss ticks (Tick)
board.cache_hierarchy.iptw_caches1.overallMissLatency::total     10987000                       # number of overall miss ticks (Tick)
board.cache_hierarchy.iptw_caches1.demandAccesses::processor.cores1.core.mmu.itb.walker          860                       # number of demand (read+write) accesses (Count)
board.cache_hierarchy.iptw_caches1.demandAccesses::total          860                       # number of demand (read+write) accesses (Count)
board.cache_hierarchy.iptw_caches1.overallAccesses::processor.cores1.core.mmu.itb.walker          860                       # number of overall (read+write) accesses (Count)
board.cache_hierarchy.iptw_caches1.overallAccesses::total          860                       # number of overall (read+write) accesses (Count)
board.cache_hierarchy.iptw_caches1.demandMissRate::processor.cores1.core.mmu.itb.walker     0.039535                       # miss rate for demand accesses (Ratio)
board.cache_hierarchy.iptw_caches1.demandMissRate::total     0.039535                       # miss rate for demand accesses (Ratio)
board.cache_hierarchy.iptw_caches1.overallMissRate::processor.cores1.core.mmu.itb.walker     0.039535                       # miss rate for overall accesses (Ratio)
board.cache_hierarchy.iptw_caches1.overallMissRate::total     0.039535                       # miss rate for overall accesses (Ratio)
board.cache_hierarchy.iptw_caches1.demandAvgMissLatency::processor.cores1.core.mmu.itb.walker 323147.058824                       # average overall miss latency in ticks ((Tick/Count))
board.cache_hierarchy.iptw_caches1.demandAvgMissLatency::total 323147.058824                       # average overall miss latency in ticks ((Tick/Count))
board.cache_hierarchy.iptw_caches1.overallAvgMissLatency::processor.cores1.core.mmu.itb.walker 323147.058824                       # average overall miss latency ((Tick/Count))
board.cache_hierarchy.iptw_caches1.overallAvgMissLatency::total 323147.058824                       # average overall miss latency ((Tick/Count))
board.cache_hierarchy.iptw_caches1.blockedCycles::no_mshrs            0                       # number of cycles access was blocked (Cycle)
board.cache_hierarchy.iptw_caches1.blockedCycles::no_targets            0                       # number of cycles access was blocked (Cycle)
board.cache_hierarchy.iptw_caches1.blockedCauses::no_mshrs            0                       # number of times access was blocked (Count)
board.cache_hierarchy.iptw_caches1.blockedCauses::no_targets            0                       # number of times access was blocked (Count)
board.cache_hierarchy.iptw_caches1.avgBlocked::no_mshrs          nan                       # average number of cycles each access was blocked ((Cycle/Count))
board.cache_hierarchy.iptw_caches1.avgBlocked::no_targets          nan                       # average number of cycles each access was blocked ((Cycle/Count))
board.cache_hierarchy.iptw_caches1.demandMshrMisses::processor.cores1.core.mmu.itb.walker           34                       # number of demand (read+write) MSHR misses (Count)
board.cache_hierarchy.iptw_caches1.demandMshrMisses::total           34                       # number of demand (read+write) MSHR misses (Count)
board.cache_hierarchy.iptw_caches1.overallMshrMisses::processor.cores1.core.mmu.itb.walker           34                       # number of overall MSHR misses (Count)
board.cache_hierarchy.iptw_caches1.overallMshrMisses::total           34                       # number of overall MSHR misses (Count)
board.cache_hierarchy.iptw_caches1.demandMshrMissLatency::processor.cores1.core.mmu.itb.walker     10970000                       # number of demand (read+write) MSHR miss ticks (Tick)
board.cache_hierarchy.iptw_caches1.demandMshrMissLatency::total     10970000                       # number of demand (read+write) MSHR miss ticks (Tick)
board.cache_hierarchy.iptw_caches1.overallMshrMissLatency::processor.cores1.core.mmu.itb.walker     10970000                       # number of overall MSHR miss ticks (Tick)
board.cache_hierarchy.iptw_caches1.overallMshrMissLatency::total     10970000                       # number of overall MSHR miss ticks (Tick)
board.cache_hierarchy.iptw_caches1.demandMshrMissRate::processor.cores1.core.mmu.itb.walker     0.039535                       # mshr miss ratio for demand accesses (Ratio)
board.cache_hierarchy.iptw_caches1.demandMshrMissRate::total     0.039535                       # mshr miss ratio for demand accesses (Ratio)
board.cache_hierarchy.iptw_caches1.overallMshrMissRate::processor.cores1.core.mmu.itb.walker     0.039535                       # mshr miss ratio for overall accesses (Ratio)
board.cache_hierarchy.iptw_caches1.overallMshrMissRate::total     0.039535                       # mshr miss ratio for overall accesses (Ratio)
board.cache_hierarchy.iptw_caches1.demandAvgMshrMissLatency::processor.cores1.core.mmu.itb.walker 322647.058824                       # average overall mshr miss latency ((Tick/Count))
board.cache_hierarchy.iptw_caches1.demandAvgMshrMissLatency::total 322647.058824                       # average overall mshr miss latency ((Tick/Count))
board.cache_hierarchy.iptw_caches1.overallAvgMshrMissLatency::processor.cores1.core.mmu.itb.walker 322647.058824                       # average overall mshr miss latency ((Tick/Count))
board.cache_hierarchy.iptw_caches1.overallAvgMshrMissLatency::total 322647.058824                       # average overall mshr miss latency ((Tick/Count))
board.cache_hierarchy.iptw_caches1.replacements            2                       # number of replacements (Count)
board.cache_hierarchy.iptw_caches1.ReadReq.hits::processor.cores1.core.mmu.itb.walker          826                       # number of ReadReq hits (Count)
board.cache_hierarchy.iptw_caches1.ReadReq.hits::total          826                       # number of ReadReq hits (Count)
board.cache_hierarchy.iptw_caches1.ReadReq.misses::processor.cores1.core.mmu.itb.walker           34                       # number of ReadReq misses (Count)
board.cache_hierarchy.iptw_caches1.ReadReq.misses::total           34                       # number of ReadReq misses (Count)
board.cache_hierarchy.iptw_caches1.ReadReq.missLatency::processor.cores1.core.mmu.itb.walker     10987000                       # number of ReadReq miss ticks (Tick)
board.cache_hierarchy.iptw_caches1.ReadReq.missLatency::total     10987000                       # number of ReadReq miss ticks (Tick)
board.cache_hierarchy.iptw_caches1.ReadReq.accesses::processor.cores1.core.mmu.itb.walker          860                       # number of ReadReq accesses(hits+misses) (Count)
board.cache_hierarchy.iptw_caches1.ReadReq.accesses::total          860                       # number of ReadReq accesses(hits+misses) (Count)
board.cache_hierarchy.iptw_caches1.ReadReq.missRate::processor.cores1.core.mmu.itb.walker     0.039535                       # miss rate for ReadReq accesses (Ratio)
board.cache_hierarchy.iptw_caches1.ReadReq.missRate::total     0.039535                       # miss rate for ReadReq accesses (Ratio)
board.cache_hierarchy.iptw_caches1.ReadReq.avgMissLatency::processor.cores1.core.mmu.itb.walker 323147.058824                       # average ReadReq miss latency ((Tick/Count))
board.cache_hierarchy.iptw_caches1.ReadReq.avgMissLatency::total 323147.058824                       # average ReadReq miss latency ((Tick/Count))
board.cache_hierarchy.iptw_caches1.ReadReq.mshrMisses::processor.cores1.core.mmu.itb.walker           34                       # number of ReadReq MSHR misses (Count)
board.cache_hierarchy.iptw_caches1.ReadReq.mshrMisses::total           34                       # number of ReadReq MSHR misses (Count)
board.cache_hierarchy.iptw_caches1.ReadReq.mshrMissLatency::processor.cores1.core.mmu.itb.walker     10970000                       # number of ReadReq MSHR miss ticks (Tick)
board.cache_hierarchy.iptw_caches1.ReadReq.mshrMissLatency::total     10970000                       # number of ReadReq MSHR miss ticks (Tick)
board.cache_hierarchy.iptw_caches1.ReadReq.mshrMissRate::processor.cores1.core.mmu.itb.walker     0.039535                       # mshr miss rate for ReadReq accesses (Ratio)
board.cache_hierarchy.iptw_caches1.ReadReq.mshrMissRate::total     0.039535                       # mshr miss rate for ReadReq accesses (Ratio)
board.cache_hierarchy.iptw_caches1.ReadReq.avgMshrMissLatency::processor.cores1.core.mmu.itb.walker 322647.058824                       # average ReadReq mshr miss latency ((Tick/Count))
board.cache_hierarchy.iptw_caches1.ReadReq.avgMshrMissLatency::total 322647.058824                       # average ReadReq mshr miss latency ((Tick/Count))
board.cache_hierarchy.iptw_caches1.power_state.pwrStateResidencyTicks::UNDEFINED 250000000000                       # Cumulative time (in ticks) in various power states (Tick)
board.cache_hierarchy.iptw_caches1.tags.tagsInUse    21.909562                       # Average ticks per tags in use ((Tick/Count))
board.cache_hierarchy.iptw_caches1.tags.totalRefs           28                       # Total number of references to valid blocks. (Count)
board.cache_hierarchy.iptw_caches1.tags.sampledRefs            8                       # Sample count of references to valid blocks. (Count)
board.cache_hierarchy.iptw_caches1.tags.avgRefs     3.500000                       # Average number of references to valid blocks. ((Count/Count))
board.cache_hierarchy.iptw_caches1.tags.warmupTick 10040686916500                       # The tick when the warmup percentage was hit. (Tick)
board.cache_hierarchy.iptw_caches1.tags.occupancies::processor.cores1.core.mmu.itb.walker    21.909562                       # Average occupied blocks per tick, per requestor ((Count/Tick))
board.cache_hierarchy.iptw_caches1.tags.avgOccs::processor.cores1.core.mmu.itb.walker     0.171168                       # Average percentage of cache occupancy ((Ratio/Tick))
board.cache_hierarchy.iptw_caches1.tags.avgOccs::total     0.171168                       # Average percentage of cache occupancy ((Ratio/Tick))
board.cache_hierarchy.iptw_caches1.tags.occupanciesTaskId::1024           26                       # Occupied blocks per task id (Count)
board.cache_hierarchy.iptw_caches1.tags.ageTaskId_1024::3            2                       # Occupied blocks per task id, per block age (Count)
board.cache_hierarchy.iptw_caches1.tags.ageTaskId_1024::4           24                       # Occupied blocks per task id, per block age (Count)
board.cache_hierarchy.iptw_caches1.tags.ratioOccsTaskId::1024     0.203125                       # Ratio of occupied blocks and all blocks, per task id (Ratio)
board.cache_hierarchy.iptw_caches1.tags.tagAccesses         3474                       # Number of tag accesses (Count)
board.cache_hierarchy.iptw_caches1.tags.dataAccesses         3474                       # Number of data accesses (Count)
board.cache_hierarchy.iptw_caches1.tags.power_state.pwrStateResidencyTicks::UNDEFINED 250000000000                       # Cumulative time (in ticks) in various power states (Tick)
board.cache_hierarchy.l1dcaches0.demandHits::processor.cores0.core.data     25222200                       # number of demand (read+write) hits (Count)
board.cache_hierarchy.l1dcaches0.demandHits::total     25222200                       # number of demand (read+write) hits (Count)
board.cache_hierarchy.l1dcaches0.overallHits::processor.cores0.core.data     25222200                       # number of overall hits (Count)
board.cache_hierarchy.l1dcaches0.overallHits::total     25222200                       # number of overall hits (Count)
board.cache_hierarchy.l1dcaches0.demandMisses::processor.cores0.core.data      6545502                       # number of demand (read+write) misses (Count)
board.cache_hierarchy.l1dcaches0.demandMisses::total      6545502                       # number of demand (read+write) misses (Count)
board.cache_hierarchy.l1dcaches0.overallMisses::processor.cores0.core.data      6545502                       # number of overall misses (Count)
board.cache_hierarchy.l1dcaches0.overallMisses::total      6545502                       # number of overall misses (Count)
board.cache_hierarchy.l1dcaches0.demandMissLatency::processor.cores0.core.data 4174087992277                       # number of demand (read+write) miss ticks (Tick)
board.cache_hierarchy.l1dcaches0.demandMissLatency::total 4174087992277                       # number of demand (read+write) miss ticks (Tick)
board.cache_hierarchy.l1dcaches0.overallMissLatency::processor.cores0.core.data 4174087992277                       # number of overall miss ticks (Tick)
board.cache_hierarchy.l1dcaches0.overallMissLatency::total 4174087992277                       # number of overall miss ticks (Tick)
board.cache_hierarchy.l1dcaches0.demandAccesses::processor.cores0.core.data     31767702                       # number of demand (read+write) accesses (Count)
board.cache_hierarchy.l1dcaches0.demandAccesses::total     31767702                       # number of demand (read+write) accesses (Count)
board.cache_hierarchy.l1dcaches0.overallAccesses::processor.cores0.core.data     31767702                       # number of overall (read+write) accesses (Count)
board.cache_hierarchy.l1dcaches0.overallAccesses::total     31767702                       # number of overall (read+write) accesses (Count)
board.cache_hierarchy.l1dcaches0.demandMissRate::processor.cores0.core.data     0.206043                       # miss rate for demand accesses (Ratio)
board.cache_hierarchy.l1dcaches0.demandMissRate::total     0.206043                       # miss rate for demand accesses (Ratio)
board.cache_hierarchy.l1dcaches0.overallMissRate::processor.cores0.core.data     0.206043                       # miss rate for overall accesses (Ratio)
board.cache_hierarchy.l1dcaches0.overallMissRate::total     0.206043                       # miss rate for overall accesses (Ratio)
board.cache_hierarchy.l1dcaches0.demandAvgMissLatency::processor.cores0.core.data 637703.264360                       # average overall miss latency in ticks ((Tick/Count))
board.cache_hierarchy.l1dcaches0.demandAvgMissLatency::total 637703.264360                       # average overall miss latency in ticks ((Tick/Count))
board.cache_hierarchy.l1dcaches0.overallAvgMissLatency::processor.cores0.core.data 637703.264360                       # average overall miss latency ((Tick/Count))
board.cache_hierarchy.l1dcaches0.overallAvgMissLatency::total 637703.264360                       # average overall miss latency ((Tick/Count))
board.cache_hierarchy.l1dcaches0.blockedCycles::no_mshrs       189024                       # number of cycles access was blocked (Cycle)
board.cache_hierarchy.l1dcaches0.blockedCycles::no_targets     51232845                       # number of cycles access was blocked (Cycle)
board.cache_hierarchy.l1dcaches0.blockedCauses::no_mshrs         1761                       # number of times access was blocked (Count)
board.cache_hierarchy.l1dcaches0.blockedCauses::no_targets        45205                       # number of times access was blocked (Count)
board.cache_hierarchy.l1dcaches0.avgBlocked::no_mshrs   107.339012                       # average number of cycles each access was blocked ((Cycle/Count))
board.cache_hierarchy.l1dcaches0.avgBlocked::no_targets  1133.344652                       # average number of cycles each access was blocked ((Cycle/Count))
board.cache_hierarchy.l1dcaches0.writebacks::writebacks      1366463                       # number of writebacks (Count)
board.cache_hierarchy.l1dcaches0.writebacks::total      1366463                       # number of writebacks (Count)
board.cache_hierarchy.l1dcaches0.demandMshrHits::processor.cores0.core.data      6027401                       # number of demand (read+write) MSHR hits (Count)
board.cache_hierarchy.l1dcaches0.demandMshrHits::total      6027401                       # number of demand (read+write) MSHR hits (Count)
board.cache_hierarchy.l1dcaches0.overallMshrHits::processor.cores0.core.data      6027401                       # number of overall MSHR hits (Count)
board.cache_hierarchy.l1dcaches0.overallMshrHits::total      6027401                       # number of overall MSHR hits (Count)
board.cache_hierarchy.l1dcaches0.demandMshrMisses::processor.cores0.core.data       518101                       # number of demand (read+write) MSHR misses (Count)
board.cache_hierarchy.l1dcaches0.demandMshrMisses::total       518101                       # number of demand (read+write) MSHR misses (Count)
board.cache_hierarchy.l1dcaches0.overallMshrMisses::cache_hierarchy.l1dcaches0.prefetcher       961946                       # number of overall MSHR misses (Count)
board.cache_hierarchy.l1dcaches0.overallMshrMisses::processor.cores0.core.data       518101                       # number of overall MSHR misses (Count)
board.cache_hierarchy.l1dcaches0.overallMshrMisses::total      1480047                       # number of overall MSHR misses (Count)
board.cache_hierarchy.l1dcaches0.overallMshrUncacheable::processor.cores0.core.data           66                       # number of overall MSHR uncacheable misses (Count)
board.cache_hierarchy.l1dcaches0.overallMshrUncacheable::total           66                       # number of overall MSHR uncacheable misses (Count)
board.cache_hierarchy.l1dcaches0.demandMshrMissLatency::processor.cores0.core.data 374191905582                       # number of demand (read+write) MSHR miss ticks (Tick)
board.cache_hierarchy.l1dcaches0.demandMshrMissLatency::total 374191905582                       # number of demand (read+write) MSHR miss ticks (Tick)
board.cache_hierarchy.l1dcaches0.overallMshrMissLatency::cache_hierarchy.l1dcaches0.prefetcher 1381011097008                       # number of overall MSHR miss ticks (Tick)
board.cache_hierarchy.l1dcaches0.overallMshrMissLatency::processor.cores0.core.data 374191905582                       # number of overall MSHR miss ticks (Tick)
board.cache_hierarchy.l1dcaches0.overallMshrMissLatency::total 1755203002590                       # number of overall MSHR miss ticks (Tick)
board.cache_hierarchy.l1dcaches0.demandMshrMissRate::processor.cores0.core.data     0.016309                       # mshr miss ratio for demand accesses (Ratio)
board.cache_hierarchy.l1dcaches0.demandMshrMissRate::total     0.016309                       # mshr miss ratio for demand accesses (Ratio)
board.cache_hierarchy.l1dcaches0.overallMshrMissRate::cache_hierarchy.l1dcaches0.prefetcher          inf                       # mshr miss ratio for overall accesses (Ratio)
board.cache_hierarchy.l1dcaches0.overallMshrMissRate::processor.cores0.core.data     0.016309                       # mshr miss ratio for overall accesses (Ratio)
board.cache_hierarchy.l1dcaches0.overallMshrMissRate::total     0.046590                       # mshr miss ratio for overall accesses (Ratio)
board.cache_hierarchy.l1dcaches0.demandAvgMshrMissLatency::processor.cores0.core.data 722237.373759                       # average overall mshr miss latency ((Tick/Count))
board.cache_hierarchy.l1dcaches0.demandAvgMshrMissLatency::total 722237.373759                       # average overall mshr miss latency ((Tick/Count))
board.cache_hierarchy.l1dcaches0.overallAvgMshrMissLatency::cache_hierarchy.l1dcaches0.prefetcher 1435643.057935                       # average overall mshr miss latency ((Tick/Count))
board.cache_hierarchy.l1dcaches0.overallAvgMshrMissLatency::processor.cores0.core.data 722237.373759                       # average overall mshr miss latency ((Tick/Count))
board.cache_hierarchy.l1dcaches0.overallAvgMshrMissLatency::total 1185910.314058                       # average overall mshr miss latency ((Tick/Count))
board.cache_hierarchy.l1dcaches0.replacements      1460285                       # number of replacements (Count)
board.cache_hierarchy.l1dcaches0.HardPFReq.mshrMisses::cache_hierarchy.l1dcaches0.prefetcher       961946                       # number of HardPFReq MSHR misses (Count)
board.cache_hierarchy.l1dcaches0.HardPFReq.mshrMisses::total       961946                       # number of HardPFReq MSHR misses (Count)
board.cache_hierarchy.l1dcaches0.HardPFReq.mshrMissLatency::cache_hierarchy.l1dcaches0.prefetcher 1381011097008                       # number of HardPFReq MSHR miss ticks (Tick)
board.cache_hierarchy.l1dcaches0.HardPFReq.mshrMissLatency::total 1381011097008                       # number of HardPFReq MSHR miss ticks (Tick)
board.cache_hierarchy.l1dcaches0.HardPFReq.mshrMissRate::cache_hierarchy.l1dcaches0.prefetcher          inf                       # mshr miss rate for HardPFReq accesses (Ratio)
board.cache_hierarchy.l1dcaches0.HardPFReq.mshrMissRate::total          inf                       # mshr miss rate for HardPFReq accesses (Ratio)
board.cache_hierarchy.l1dcaches0.HardPFReq.avgMshrMissLatency::cache_hierarchy.l1dcaches0.prefetcher 1435643.057935                       # average HardPFReq mshr miss latency ((Tick/Count))
board.cache_hierarchy.l1dcaches0.HardPFReq.avgMshrMissLatency::total 1435643.057935                       # average HardPFReq mshr miss latency ((Tick/Count))
board.cache_hierarchy.l1dcaches0.LoadLockedReq.hits::processor.cores0.core.data           62                       # number of LoadLockedReq hits (Count)
board.cache_hierarchy.l1dcaches0.LoadLockedReq.hits::total           62                       # number of LoadLockedReq hits (Count)
board.cache_hierarchy.l1dcaches0.LoadLockedReq.misses::processor.cores0.core.data            3                       # number of LoadLockedReq misses (Count)
board.cache_hierarchy.l1dcaches0.LoadLockedReq.misses::total            3                       # number of LoadLockedReq misses (Count)
board.cache_hierarchy.l1dcaches0.LoadLockedReq.missLatency::processor.cores0.core.data      1487000                       # number of LoadLockedReq miss ticks (Tick)
board.cache_hierarchy.l1dcaches0.LoadLockedReq.missLatency::total      1487000                       # number of LoadLockedReq miss ticks (Tick)
board.cache_hierarchy.l1dcaches0.LoadLockedReq.accesses::processor.cores0.core.data           65                       # number of LoadLockedReq accesses(hits+misses) (Count)
board.cache_hierarchy.l1dcaches0.LoadLockedReq.accesses::total           65                       # number of LoadLockedReq accesses(hits+misses) (Count)
board.cache_hierarchy.l1dcaches0.LoadLockedReq.missRate::processor.cores0.core.data     0.046154                       # miss rate for LoadLockedReq accesses (Ratio)
board.cache_hierarchy.l1dcaches0.LoadLockedReq.missRate::total     0.046154                       # miss rate for LoadLockedReq accesses (Ratio)
board.cache_hierarchy.l1dcaches0.LoadLockedReq.avgMissLatency::processor.cores0.core.data 495666.666667                       # average LoadLockedReq miss latency ((Tick/Count))
board.cache_hierarchy.l1dcaches0.LoadLockedReq.avgMissLatency::total 495666.666667                       # average LoadLockedReq miss latency ((Tick/Count))
board.cache_hierarchy.l1dcaches0.LoadLockedReq.mshrHits::processor.cores0.core.data            2                       # number of LoadLockedReq MSHR hits (Count)
board.cache_hierarchy.l1dcaches0.LoadLockedReq.mshrHits::total            2                       # number of LoadLockedReq MSHR hits (Count)
board.cache_hierarchy.l1dcaches0.LoadLockedReq.mshrMisses::processor.cores0.core.data            1                       # number of LoadLockedReq MSHR misses (Count)
board.cache_hierarchy.l1dcaches0.LoadLockedReq.mshrMisses::total            1                       # number of LoadLockedReq MSHR misses (Count)
board.cache_hierarchy.l1dcaches0.LoadLockedReq.mshrMissLatency::processor.cores0.core.data      1201500                       # number of LoadLockedReq MSHR miss ticks (Tick)
board.cache_hierarchy.l1dcaches0.LoadLockedReq.mshrMissLatency::total      1201500                       # number of LoadLockedReq MSHR miss ticks (Tick)
board.cache_hierarchy.l1dcaches0.LoadLockedReq.mshrMissRate::processor.cores0.core.data     0.015385                       # mshr miss rate for LoadLockedReq accesses (Ratio)
board.cache_hierarchy.l1dcaches0.LoadLockedReq.mshrMissRate::total     0.015385                       # mshr miss rate for LoadLockedReq accesses (Ratio)
board.cache_hierarchy.l1dcaches0.LoadLockedReq.avgMshrMissLatency::processor.cores0.core.data      1201500                       # average LoadLockedReq mshr miss latency ((Tick/Count))
board.cache_hierarchy.l1dcaches0.LoadLockedReq.avgMshrMissLatency::total      1201500                       # average LoadLockedReq mshr miss latency ((Tick/Count))
board.cache_hierarchy.l1dcaches0.ReadReq.hits::processor.cores0.core.data     14007316                       # number of ReadReq hits (Count)
board.cache_hierarchy.l1dcaches0.ReadReq.hits::total     14007316                       # number of ReadReq hits (Count)
board.cache_hierarchy.l1dcaches0.ReadReq.misses::processor.cores0.core.data      1034265                       # number of ReadReq misses (Count)
board.cache_hierarchy.l1dcaches0.ReadReq.misses::total      1034265                       # number of ReadReq misses (Count)
board.cache_hierarchy.l1dcaches0.ReadReq.missLatency::processor.cores0.core.data 525590235500                       # number of ReadReq miss ticks (Tick)
board.cache_hierarchy.l1dcaches0.ReadReq.missLatency::total 525590235500                       # number of ReadReq miss ticks (Tick)
board.cache_hierarchy.l1dcaches0.ReadReq.accesses::processor.cores0.core.data     15041581                       # number of ReadReq accesses(hits+misses) (Count)
board.cache_hierarchy.l1dcaches0.ReadReq.accesses::total     15041581                       # number of ReadReq accesses(hits+misses) (Count)
board.cache_hierarchy.l1dcaches0.ReadReq.missRate::processor.cores0.core.data     0.068760                       # miss rate for ReadReq accesses (Ratio)
board.cache_hierarchy.l1dcaches0.ReadReq.missRate::total     0.068760                       # miss rate for ReadReq accesses (Ratio)
board.cache_hierarchy.l1dcaches0.ReadReq.avgMissLatency::processor.cores0.core.data 508177.532354                       # average ReadReq miss latency ((Tick/Count))
board.cache_hierarchy.l1dcaches0.ReadReq.avgMissLatency::total 508177.532354                       # average ReadReq miss latency ((Tick/Count))
board.cache_hierarchy.l1dcaches0.ReadReq.mshrHits::processor.cores0.core.data       929115                       # number of ReadReq MSHR hits (Count)
board.cache_hierarchy.l1dcaches0.ReadReq.mshrHits::total       929115                       # number of ReadReq MSHR hits (Count)
board.cache_hierarchy.l1dcaches0.ReadReq.mshrMisses::processor.cores0.core.data       105150                       # number of ReadReq MSHR misses (Count)
board.cache_hierarchy.l1dcaches0.ReadReq.mshrMisses::total       105150                       # number of ReadReq MSHR misses (Count)
board.cache_hierarchy.l1dcaches0.ReadReq.mshrMissLatency::processor.cores0.core.data  28330073000                       # number of ReadReq MSHR miss ticks (Tick)
board.cache_hierarchy.l1dcaches0.ReadReq.mshrMissLatency::total  28330073000                       # number of ReadReq MSHR miss ticks (Tick)
board.cache_hierarchy.l1dcaches0.ReadReq.mshrMissRate::processor.cores0.core.data     0.006991                       # mshr miss rate for ReadReq accesses (Ratio)
board.cache_hierarchy.l1dcaches0.ReadReq.mshrMissRate::total     0.006991                       # mshr miss rate for ReadReq accesses (Ratio)
board.cache_hierarchy.l1dcaches0.ReadReq.avgMshrMissLatency::processor.cores0.core.data 269425.325725                       # average ReadReq mshr miss latency ((Tick/Count))
board.cache_hierarchy.l1dcaches0.ReadReq.avgMshrMissLatency::total 269425.325725                       # average ReadReq mshr miss latency ((Tick/Count))
board.cache_hierarchy.l1dcaches0.StoreCondFailReq.missLatency::processor.cores0.core.data        59000                       # number of StoreCondFailReq miss ticks (Tick)
board.cache_hierarchy.l1dcaches0.StoreCondFailReq.missLatency::total        59000                       # number of StoreCondFailReq miss ticks (Tick)
board.cache_hierarchy.l1dcaches0.StoreCondFailReq.avgMissLatency::processor.cores0.core.data          inf                       # average StoreCondFailReq miss latency ((Tick/Count))
board.cache_hierarchy.l1dcaches0.StoreCondFailReq.avgMissLatency::total          inf                       # average StoreCondFailReq miss latency ((Tick/Count))
board.cache_hierarchy.l1dcaches0.StoreCondFailReq.mshrMissLatency::processor.cores0.core.data        58500                       # number of StoreCondFailReq MSHR miss ticks (Tick)
board.cache_hierarchy.l1dcaches0.StoreCondFailReq.mshrMissLatency::total        58500                       # number of StoreCondFailReq MSHR miss ticks (Tick)
board.cache_hierarchy.l1dcaches0.StoreCondFailReq.avgMshrMissLatency::processor.cores0.core.data          inf                       # average StoreCondFailReq mshr miss latency ((Tick/Count))
board.cache_hierarchy.l1dcaches0.StoreCondFailReq.avgMshrMissLatency::total          inf                       # average StoreCondFailReq mshr miss latency ((Tick/Count))
board.cache_hierarchy.l1dcaches0.StoreCondReq.hits::processor.cores0.core.data           63                       # number of StoreCondReq hits (Count)
board.cache_hierarchy.l1dcaches0.StoreCondReq.hits::total           63                       # number of StoreCondReq hits (Count)
board.cache_hierarchy.l1dcaches0.StoreCondReq.misses::processor.cores0.core.data            1                       # number of StoreCondReq misses (Count)
board.cache_hierarchy.l1dcaches0.StoreCondReq.misses::total            1                       # number of StoreCondReq misses (Count)
board.cache_hierarchy.l1dcaches0.StoreCondReq.accesses::processor.cores0.core.data           64                       # number of StoreCondReq accesses(hits+misses) (Count)
board.cache_hierarchy.l1dcaches0.StoreCondReq.accesses::total           64                       # number of StoreCondReq accesses(hits+misses) (Count)
board.cache_hierarchy.l1dcaches0.StoreCondReq.missRate::processor.cores0.core.data     0.015625                       # miss rate for StoreCondReq accesses (Ratio)
board.cache_hierarchy.l1dcaches0.StoreCondReq.missRate::total     0.015625                       # miss rate for StoreCondReq accesses (Ratio)
board.cache_hierarchy.l1dcaches0.StoreCondReq.mshrMisses::processor.cores0.core.data            1                       # number of StoreCondReq MSHR misses (Count)
board.cache_hierarchy.l1dcaches0.StoreCondReq.mshrMisses::total            1                       # number of StoreCondReq MSHR misses (Count)
board.cache_hierarchy.l1dcaches0.StoreCondReq.mshrMissRate::processor.cores0.core.data     0.015625                       # mshr miss rate for StoreCondReq accesses (Ratio)
board.cache_hierarchy.l1dcaches0.StoreCondReq.mshrMissRate::total     0.015625                       # mshr miss rate for StoreCondReq accesses (Ratio)
board.cache_hierarchy.l1dcaches0.SwapReq.hits::processor.cores0.core.data       186404                       # number of SwapReq hits (Count)
board.cache_hierarchy.l1dcaches0.SwapReq.hits::total       186404                       # number of SwapReq hits (Count)
board.cache_hierarchy.l1dcaches0.SwapReq.misses::processor.cores0.core.data         4366                       # number of SwapReq misses (Count)
board.cache_hierarchy.l1dcaches0.SwapReq.misses::total         4366                       # number of SwapReq misses (Count)
board.cache_hierarchy.l1dcaches0.SwapReq.missLatency::processor.cores0.core.data     75772500                       # number of SwapReq miss ticks (Tick)
board.cache_hierarchy.l1dcaches0.SwapReq.missLatency::total     75772500                       # number of SwapReq miss ticks (Tick)
board.cache_hierarchy.l1dcaches0.SwapReq.accesses::processor.cores0.core.data       190770                       # number of SwapReq accesses(hits+misses) (Count)
board.cache_hierarchy.l1dcaches0.SwapReq.accesses::total       190770                       # number of SwapReq accesses(hits+misses) (Count)
board.cache_hierarchy.l1dcaches0.SwapReq.missRate::processor.cores0.core.data     0.022886                       # miss rate for SwapReq accesses (Ratio)
board.cache_hierarchy.l1dcaches0.SwapReq.missRate::total     0.022886                       # miss rate for SwapReq accesses (Ratio)
board.cache_hierarchy.l1dcaches0.SwapReq.avgMissLatency::processor.cores0.core.data 17355.130554                       # average SwapReq miss latency ((Tick/Count))
board.cache_hierarchy.l1dcaches0.SwapReq.avgMissLatency::total 17355.130554                       # average SwapReq miss latency ((Tick/Count))
board.cache_hierarchy.l1dcaches0.SwapReq.mshrMisses::processor.cores0.core.data         4366                       # number of SwapReq MSHR misses (Count)
board.cache_hierarchy.l1dcaches0.SwapReq.mshrMisses::total         4366                       # number of SwapReq MSHR misses (Count)
board.cache_hierarchy.l1dcaches0.SwapReq.mshrMissLatency::processor.cores0.core.data     73589500                       # number of SwapReq MSHR miss ticks (Tick)
board.cache_hierarchy.l1dcaches0.SwapReq.mshrMissLatency::total     73589500                       # number of SwapReq MSHR miss ticks (Tick)
board.cache_hierarchy.l1dcaches0.SwapReq.mshrMissRate::processor.cores0.core.data     0.022886                       # mshr miss rate for SwapReq accesses (Ratio)
board.cache_hierarchy.l1dcaches0.SwapReq.mshrMissRate::total     0.022886                       # mshr miss rate for SwapReq accesses (Ratio)
board.cache_hierarchy.l1dcaches0.SwapReq.avgMshrMissLatency::processor.cores0.core.data 16855.130554                       # average SwapReq mshr miss latency ((Tick/Count))
board.cache_hierarchy.l1dcaches0.SwapReq.avgMshrMissLatency::total 16855.130554                       # average SwapReq mshr miss latency ((Tick/Count))
board.cache_hierarchy.l1dcaches0.WriteReq.hits::processor.cores0.core.data     11214884                       # number of WriteReq hits (Count)
board.cache_hierarchy.l1dcaches0.WriteReq.hits::total     11214884                       # number of WriteReq hits (Count)
board.cache_hierarchy.l1dcaches0.WriteReq.misses::processor.cores0.core.data      5511237                       # number of WriteReq misses (Count)
board.cache_hierarchy.l1dcaches0.WriteReq.misses::total      5511237                       # number of WriteReq misses (Count)
board.cache_hierarchy.l1dcaches0.WriteReq.missLatency::processor.cores0.core.data 3648497756777                       # number of WriteReq miss ticks (Tick)
board.cache_hierarchy.l1dcaches0.WriteReq.missLatency::total 3648497756777                       # number of WriteReq miss ticks (Tick)
board.cache_hierarchy.l1dcaches0.WriteReq.accesses::processor.cores0.core.data     16726121                       # number of WriteReq accesses(hits+misses) (Count)
[...]
board.processor.cores1.core.fetch.nisnDist::samples    497883586                       # Number of instructions fetched each cycle (Total) (Count)
board.processor.cores1.core.fetch.nisnDist::mean     0.234967                       # Number of instructions fetched each cycle (Total) (Count)
board.processor.cores1.core.fetch.nisnDist::stdev     1.222894                       # Number of instructions fetched each cycle (Total) (Count)
board.processor.cores1.core.fetch.nisnDist::underflows            0      0.00%      0.00% # Number of instructions fetched each cycle (Total) (Count)
board.processor.cores1.core.fetch.nisnDist::0    476116825     95.63%     95.63% # Number of instructions fetched each cycle (Total) (Count)
board.processor.cores1.core.fetch.nisnDist::1      2219926      0.45%     96.07% # Number of instructions fetched each cycle (Total) (Count)
board.processor.cores1.core.fetch.nisnDist::2      2271395      0.46%     96.53% # Number of instructions fetched each cycle (Total) (Count)
board.processor.cores1.core.fetch.nisnDist::3      1589779      0.32%     96.85% # Number of instructions fetched each cycle (Total) (Count)
board.processor.cores1.core.fetch.nisnDist::4      2121500      0.43%     97.28% # Number of instructions fetched each cycle (Total) (Count)
board.processor.cores1.core.fetch.nisnDist::5      2489420      0.50%     97.78% # Number of instructions fetched each cycle (Total) (Count)
board.processor.cores1.core.fetch.nisnDist::6      1318218      0.26%     98.04% # Number of instructions fetched each cycle (Total) (Count)
board.processor.cores1.core.fetch.nisnDist::7      1440551      0.29%     98.33% # Number of instructions fetched each cycle (Total) (Count)
board.processor.cores1.core.fetch.nisnDist::8      8315972      1.67%    100.00% # Number of instructions fetched each cycle (Total) (Count)
board.processor.cores1.core.fetch.nisnDist::overflows            0      0.00%    100.00% # Number of instructions fetched each cycle (Total) (Count)
board.processor.cores1.core.fetch.nisnDist::min_value            0                       # Number of instructions fetched each cycle (Total) (Count)
board.processor.cores1.core.fetch.nisnDist::max_value            8                       # Number of instructions fetched each cycle (Total) (Count)
board.processor.cores1.core.fetch.nisnDist::total    497883586                       # Number of instructions fetched each cycle (Total) (Count)
board.processor.cores1.core.fetch.branchRate     0.032656                       # Number of branch fetches per cycle (Ratio)
board.processor.cores1.core.fetch.rate       0.233851                       # Number of inst fetches per cycle ((Count/Cycle))
board.processor.cores1.core.iew.idleCycles            0                       # Number of cycles IEW is idle (Cycle)
board.processor.cores1.core.iew.squashCycles       114903                       # Number of cycles IEW is squashing (Cycle)
board.processor.cores1.core.iew.blockCycles    175279721                       # Number of cycles IEW is blocking (Cycle)
board.processor.cores1.core.iew.unblockCycles     94000301                       # Number of cycles IEW is unblocking (Cycle)
board.processor.cores1.core.iew.dispatchedInsts    113014900                       # Number of instructions dispatched to IQ (Count)
board.processor.cores1.core.iew.dispSquashedInsts        21463                       # Number of squashed instructions skipped by dispatch (Count)
board.processor.cores1.core.iew.dispLoadInsts     27051196                       # Number of dispatched load instructions (Count)
board.processor.cores1.core.iew.dispStoreInsts     11906099                       # Number of dispatched store instructions (Count)
board.processor.cores1.core.iew.dispNonSpecInsts       411587                       # Number of dispatched non-speculative instructions (Count)
board.processor.cores1.core.iew.iqFullEvents        76937                       # Number of times the IQ has become full, causing a stall (Count)
board.processor.cores1.core.iew.lsqFullEvents     93859202                       # Number of times the LSQ has become full, causing a stall (Count)
board.processor.cores1.core.iew.memOrderViolationEvents         2454                       # Number of memory order violations (Count)
board.processor.cores1.core.iew.predictedTakenIncorrect        70051                       # Number of branches that were predicted taken incorrectly (Count)
board.processor.cores1.core.iew.predictedNotTakenIncorrect        50741                       # Number of branches that were predicted not taken incorrectly (Count)
board.processor.cores1.core.iew.branchMispredicts       120792                       # Number of branch mispredicts detected at execute (Count)
board.processor.cores1.core.iew.instsToCommit    112059611                       # Cumulative count of insts sent to commit (Count)
board.processor.cores1.core.iew.writebackCount    111870195                       # Cumulative count of insts written-back (Count)
board.processor.cores1.core.iew.producerInst     75042378                       # Number of instructions producing a value (Count)
board.processor.cores1.core.iew.consumerInst    104643032                       # Number of instructions consuming a value (Count)
board.processor.cores1.core.iew.wbRate       0.223740                       # Insts written-back per cycle ((Count/Cycle))
board.processor.cores1.core.iew.wbFanout     0.717127                       # Average fanout of values written-back ((Count/Count))
board.processor.cores1.core.lsq0.forwLoads       531821                       # Number of loads that had data forwarded from stores (Count)
board.processor.cores1.core.lsq0.squashedLoads       728638                       # Number of loads squashed (Count)
board.processor.cores1.core.lsq0.ignoredResponses          566                       # Number of memory responses ignored because the instruction is squashed (Count)
board.processor.cores1.core.lsq0.memOrderViolation         2454                       # Number of memory ordering violations (Count)
board.processor.cores1.core.lsq0.squashedStores       465685                       # Number of stores squashed (Count)
board.processor.cores1.core.lsq0.rescheduledLoads           27                       # Number of loads that were rescheduled (Count)
board.processor.cores1.core.lsq0.blockedByCache       182044                       # Number of times an access to memory failed due to the cache being blocked (Count)
board.processor.cores1.core.lsq0.loadToUse::samples     26322534                       # Distribution of cycle latency between the first time a load is issued and its completion (Unspecified)
board.processor.cores1.core.lsq0.loadToUse::mean   158.482343                       # Distribution of cycle latency between the first time a load is issued and its completion (Unspecified)
board.processor.cores1.core.lsq0.loadToUse::stdev   580.364507                       # Distribution of cycle latency between the first time a load is issued and its completion (Unspecified)
board.processor.cores1.core.lsq0.loadToUse::0-9     21867889     83.08%     83.08% # Distribution of cycle latency between the first time a load is issued and its completion (Unspecified)
board.processor.cores1.core.lsq0.loadToUse::10-19        86895      0.33%     83.41% # Distribution of cycle latency between the first time a load is issued and its completion (Unspecified)
board.processor.cores1.core.lsq0.loadToUse::20-29        21735      0.08%     83.49% # Distribution of cycle latency between the first time a load is issued and its completion (Unspecified)
board.processor.cores1.core.lsq0.loadToUse::30-39        38358      0.15%     83.64% # Distribution of cycle latency between the first time a load is issued and its completion (Unspecified)
board.processor.cores1.core.lsq0.loadToUse::40-49        46323      0.18%     83.81% # Distribution of cycle latency between the first time a load is issued and its completion (Unspecified)
board.processor.cores1.core.lsq0.loadToUse::50-59       117533      0.45%     84.26% # Distribution of cycle latency between the first time a load is issued and its completion (Unspecified)
board.processor.cores1.core.lsq0.loadToUse::60-69       134002      0.51%     84.77% # Distribution of cycle latency between the first time a load is issued and its completion (Unspecified)
board.processor.cores1.core.lsq0.loadToUse::70-79       144224      0.55%     85.31% # Distribution of cycle latency between the first time a load is issued and its completion (Unspecified)
board.processor.cores1.core.lsq0.loadToUse::80-89        67508      0.26%     85.57% # Distribution of cycle latency between the first time a load is issued and its completion (Unspecified)
board.processor.cores1.core.lsq0.loadToUse::90-99       115870      0.44%     86.01% # Distribution of cycle latency between the first time a load is issued and its completion (Unspecified)
board.processor.cores1.core.lsq0.loadToUse::100-109       175643      0.67%     86.68% # Distribution of cycle latency between the first time a load is issued and its completion (Unspecified)
board.processor.cores1.core.lsq0.loadToUse::110-119       161477      0.61%     87.29% # Distribution of cycle latency between the first time a load is issued and its completion (Unspecified)
board.processor.cores1.core.lsq0.loadToUse::120-129       127829      0.49%     87.78% # Distribution of cycle latency between the first time a load is issued and its completion (Unspecified)
board.processor.cores1.core.lsq0.loadToUse::130-139        68168      0.26%     88.04% # Distribution of cycle latency between the first time a load is issued and its completion (Unspecified)
board.processor.cores1.core.lsq0.loadToUse::140-149        64730      0.25%     88.28% # Distribution of cycle latency between the first time a load is issued and its completion (Unspecified)
board.processor.cores1.core.lsq0.loadToUse::150-159        74455      0.28%     88.57% # Distribution of cycle latency between the first time a load is issued and its completion (Unspecified)
board.processor.cores1.core.lsq0.loadToUse::160-169        59670      0.23%     88.79% # Distribution of cycle latency between the first time a load is issued and its completion (Unspecified)
board.processor.cores1.core.lsq0.loadToUse::170-179        70979      0.27%     89.06% # Distribution of cycle latency between the first time a load is issued and its completion (Unspecified)
board.processor.cores1.core.lsq0.loadToUse::180-189        84149      0.32%     89.38% # Distribution of cycle latency between the first time a load is issued and its completion (Unspecified)
board.processor.cores1.core.lsq0.loadToUse::190-199        77655      0.30%     89.68% # Distribution of cycle latency between the first time a load is issued and its completion (Unspecified)
board.processor.cores1.core.lsq0.loadToUse::200-209        64121      0.24%     89.92% # Distribution of cycle latency between the first time a load is issued and its completion (Unspecified)
board.processor.cores1.core.lsq0.loadToUse::210-219        46841      0.18%     90.10% # Distribution of cycle latency between the first time a load is issued and its completion (Unspecified)
board.processor.cores1.core.lsq0.loadToUse::220-229        48401      0.18%     90.28% # Distribution of cycle latency between the first time a load is issued and its completion (Unspecified)
board.processor.cores1.core.lsq0.loadToUse::230-239        56082      0.21%     90.49% # Distribution of cycle latency between the first time a load is issued and its completion (Unspecified)
board.processor.cores1.core.lsq0.loadToUse::240-249        54024      0.21%     90.70% # Distribution of cycle latency between the first time a load is issued and its completion (Unspecified)
board.processor.cores1.core.lsq0.loadToUse::250-259        58338      0.22%     90.92% # Distribution of cycle latency between the first time a load is issued and its completion (Unspecified)
board.processor.cores1.core.lsq0.loadToUse::260-269        43332      0.16%     91.09% # Distribution of cycle latency between the first time a load is issued and its completion (Unspecified)
board.processor.cores1.core.lsq0.loadToUse::270-279        43057      0.16%     91.25% # Distribution of cycle latency between the first time a load is issued and its completion (Unspecified)
board.processor.cores1.core.lsq0.loadToUse::280-289        44907      0.17%     91.42% # Distribution of cycle latency between the first time a load is issued and its completion (Unspecified)
board.processor.cores1.core.lsq0.loadToUse::290-299        41954      0.16%     91.58% # Distribution of cycle latency between the first time a load is issued and its completion (Unspecified)
board.processor.cores1.core.lsq0.loadToUse::overflows      2216385      8.42%    100.00% # Distribution of cycle latency between the first time a load is issued and its completion (Unspecified)
board.processor.cores1.core.lsq0.loadToUse::min_value            2                       # Distribution of cycle latency between the first time a load is issued and its completion (Unspecified)
board.processor.cores1.core.lsq0.loadToUse::max_value         9514                       # Distribution of cycle latency between the first time a load is issued and its completion (Unspecified)
board.processor.cores1.core.lsq0.loadToUse::total     26322534                       # Distribution of cycle latency between the first time a load is issued and its completion (Unspecified)
board.processor.cores1.core.mmu.dtb.readHits     26826614                       # read hits (Count)
board.processor.cores1.core.mmu.dtb.readMisses        34258                       # read misses (Count)
board.processor.cores1.core.mmu.dtb.readAccesses     26860872                       # read accesses (Count)
board.processor.cores1.core.mmu.dtb.writeHits     11573662                       # write hits (Count)
board.processor.cores1.core.mmu.dtb.writeMisses       209584                       # write misses (Count)
board.processor.cores1.core.mmu.dtb.writeAccesses     11783246                       # write accesses (Count)
board.processor.cores1.core.mmu.dtb.hits     38400276                       # Total TLB (read and write) hits (Count)
board.processor.cores1.core.mmu.dtb.misses       243842                       # Total TLB (read and write) misses (Count)
board.processor.cores1.core.mmu.dtb.accesses     38644118                       # Total TLB (read and write) accesses (Count)
board.processor.cores1.core.mmu.dtb.walker.power_state.pwrStateResidencyTicks::UNDEFINED 250000000000                       # Cumulative time (in ticks) in various power states (Tick)
board.processor.cores1.core.mmu.itb.readHits     10472961                       # read hits (Count)
board.processor.cores1.core.mmu.itb.readMisses          648                       # read misses (Count)
board.processor.cores1.core.mmu.itb.readAccesses     10473609                       # read accesses (Count)
board.processor.cores1.core.mmu.itb.writeHits            0                       # write hits (Count)
board.processor.cores1.core.mmu.itb.writeMisses            0                       # write misses (Count)
board.processor.cores1.core.mmu.itb.writeAccesses            0                       # write accesses (Count)
board.processor.cores1.core.mmu.itb.hits     10472961                       # Total TLB (read and write) hits (Count)
board.processor.cores1.core.mmu.itb.misses          648                       # Total TLB (read and write) misses (Count)
board.processor.cores1.core.mmu.itb.accesses     10473609                       # Total TLB (read and write) accesses (Count)
board.processor.cores1.core.mmu.itb.walker.power_state.pwrStateResidencyTicks::UNDEFINED 250000000000                       # Cumulative time (in ticks) in various power states (Tick)
board.processor.cores1.core.power_state.pwrStateResidencyTicks::ON 250000000000                       # Cumulative time (in ticks) in various power states (Tick)
board.processor.cores1.core.rename.squashCycles       114903                       # Number of cycles rename is squashing (Cycle)
board.processor.cores1.core.rename.idleCycles      5392296                       # Number of cycles rename is idle (Cycle)
board.processor.cores1.core.rename.blockCycles    270264209                       # Number of cycles rename is blocking (Cycle)
board.processor.cores1.core.rename.serializeStallCycles      5681466                       # count of cycles rename stalled for serializing inst (Cycle)
board.processor.cores1.core.rename.runCycles     15521375                       # Number of cycles rename is running (Cycle)
board.processor.cores1.core.rename.unblockCycles    200909335                       # Number of cycles rename is unblocking (Cycle)
board.processor.cores1.core.rename.renamedInsts    113381677                       # Number of instructions processed by rename (Count)
board.processor.cores1.core.rename.ROBFullEvents        67902                       # Number of times rename has blocked due to ROB full (Count)
board.processor.cores1.core.rename.IQFullEvents      8048451                       # Number of times rename has blocked due to IQ full (Count)
board.processor.cores1.core.rename.LQFullEvents      2888302                       # Number of times rename has blocked due to LQ full (Count)
board.processor.cores1.core.rename.SQFullEvents    189936242                       # Number of times rename has blocked due to SQ full (Count)
board.processor.cores1.core.rename.renamedOperands     86262466                       # Number of destination operands rename has renamed (Count)
board.processor.cores1.core.rename.lookups    172481977                       # Number of register rename lookups that rename has made (Count)
board.processor.cores1.core.rename.intLookups    167895668                       # Number of integer rename lookups (Count)
board.processor.cores1.core.rename.fpLookups           32                       # Number of floating rename lookups (Count)
board.processor.cores1.core.rename.committedMaps     84226064                       # Number of HB maps that are committed (Count)
board.processor.cores1.core.rename.undoneMaps      2036331                       # Number of HB maps that are undone due to squashing (Count)
board.processor.cores1.core.rename.serializing       271292                       # count of serializing insts renamed (Count)
board.processor.cores1.core.rename.tempSerializing       271326                       # count of temporary serializing insts renamed (Count)
board.processor.cores1.core.rename.skidInsts     28594061                       # count of insts added to the skid buffer (Count)
board.processor.cores1.core.rob.reads       605136966                       # The number of ROB reads (Count)
board.processor.cores1.core.rob.writes      226018737                       # The number of ROB writes (Count)
board.processor.cores1.core.thread_0.numInsts    110308025                       # Number of Instructions committed (Count)
board.processor.cores1.core.thread_0.numOps    110358021                       # Number of Ops committed (Count)
board.processor.cores1.core.thread_0.numMemRefs            0                       # Number of Memory References (Count)
board.rng.power_state.pwrStateResidencyTicks::UNDEFINED 250000000000                       # Cumulative time (in ticks) in various power states (Tick)
board.workload.inst.arm                             0                       # number of arm instructions executed (Count)
board.workload.inst.quiesce                         0                       # number of quiesce instructions executed (Count)

---------- End Simulation Statistics   ----------
